Circuit: * C:\Users\berat\Desktop\Electronics 1\Proje\devre\Voltage doubler\Draft1.asc

.OP point found by inspection.

Date: Tue Jan 19 06:29:59 2021
Total elapsed time: 0.193 seconds.

tnom = 27
temp = 27
method = modified trap
totiter = 88010
traniter = 88010
tranpoints = 21131
accept = 14054
rejected = 7077
matrix size = 11
fillins = 1
solver = Normal
Matrix Compiler1:      29 opcodes  0.1/[0.1]/0.1
Matrix Compiler2: off  [0.1]/0.1/0.1

