Circuit: * C:\Users\berat\Desktop\Electronics 1\Proje\devre\Half-wave Generator\Draft1.asc

.OP point found by inspection.

Date: Tue Jan 19 11:53:54 2021
Total elapsed time: 4.713 seconds.

tnom = 27
temp = 27
method = modified trap
totiter = 1695273
traniter = 1695273
tranpoints = 513922
accept = 352985
rejected = 160937
matrix size = 18
fillins = 14
solver = Normal
Matrix Compiler1: 1.80 KB object code size  0.2/0.1/[0.1]
Matrix Compiler2: 1.67 KB object code size  0.1/0.2/[0.1]

