Circuit: * C:\Users\berat\Desktop\Electronics 1\Proje\devre\Full-wave Generator\Draft1.asc

.OP point found by inspection.

Date: Tue Jan 19 13:34:02 2021
Total elapsed time: 6.166 seconds.

tnom = 27
temp = 27
method = modified trap
totiter = 1362660
traniter = 1362660
tranpoints = 309082
accept = 213123
rejected = 95959
matrix size = 32
fillins = 43
solver = Normal
Matrix Compiler1: 4.35 KB object code size  0.6/0.3/[0.2]
Matrix Compiler2: 3.31 KB object code size  0.3/0.3/[0.2]

